/*---------------------------------------------------------------------------*\
| =========                 |                                                 |
| \\      /  F ield         | OpenFOAM: The Open Source CFD Toolbox           |
|  \\    /   O peration     | Version:  5.x                                   |
|   \\  /    A nd           | Web:      www.OpenFOAM.org                      |
|    \\/     M anipulation  |                                                 |
\*---------------------------------------------------------------------------*/
Build  : 5.x-197d9d3bf20a
Exec   : blockMesh
Date   : Jun 30 2018
Time   : 08:50:10
Host   : "john-ThinkPad-Edge"
PID    : 21075
I/O    : uncollated
Case   : /home/john/Desktop/cse/4semester/openfinal/opentutorial/bigger_pipe
nProcs : 1
sigFpe : Enabling floating point exception trapping (FOAM_SIGFPE).
fileModificationChecking : Monitoring run-time modified files using timeStampMaster (fileModificationSkew 10)
allowSystemOperations : Allowing user-supplied system call operations

// * * * * * * * * * * * * * * * * * * * * * * * * * * * * * * * * * * * * * //
Create time

Not deleting polyMesh directory 
    "/home/john/Desktop/cse/4semester/openfinal/opentutorial/bigger_pipe/constant/polyMesh"
    because it contains blockMeshDict
Creating block mesh from
    "/home/john/Desktop/cse/4semester/openfinal/opentutorial/bigger_pipe/constant/polyMesh/blockMeshDict"
Creating block edges
No non-planar block faces defined
Creating topology blocks
Creating topology patches

Creating block mesh topology

Check topology

	Basic statistics
		Number of internal faces : 0
		Number of boundary faces : 6
		Number of defined boundary faces : 6
		Number of undefined boundary faces : 0
	Checking patch -> block consistency

Creating block offsets
Creating merge list .

Creating polyMesh from blockMesh
Creating patches
Creating cells
Creating points with scale 1
    Block 0 cell size :
        i : 0.1045 .. 0.1045
        j : 0.106 .. 0.106
        k : 0.2385 .. 0.2385


There are no merge patch pairs edges

Writing polyMesh
----------------
Mesh Information
----------------
  boundingBox: (-0.735 -0.62 -0.205) (0.31 0.44 2.18)
  nPoints: 1331
  nCells: 1000
  nFaces: 3300
  nInternalFaces: 2700
----------------
Patches
----------------
  patch 0 (start: 2700 size: 400) name: allBoundary
  patch 1 (start: 3100 size: 100) name: ceiling
  patch 2 (start: 3200 size: 100) name: inlet

End

