/*---------------------------------------------------------------------------*\
| =========                 |                                                 |
| \\      /  F ield         | OpenFOAM: The Open Source CFD Toolbox           |
|  \\    /   O peration     | Version:  5.x                                   |
|   \\  /    A nd           | Web:      www.OpenFOAM.org                      |
|    \\/     M anipulation  |                                                 |
\*---------------------------------------------------------------------------*/
Build  : 5.x-197d9d3bf20a
Exec   : surfaceFeatureExtract
Date   : Jun 30 2018
Time   : 08:50:10
Host   : "john-ThinkPad-Edge"
PID    : 21077
I/O    : uncollated
Case   : /home/john/Desktop/cse/4semester/openfinal/opentutorial/bigger_pipe
nProcs : 1
sigFpe : Enabling floating point exception trapping (FOAM_SIGFPE).
fileModificationChecking : Monitoring run-time modified files using timeStampMaster (fileModificationSkew 10)
allowSystemOperations : Allowing user-supplied system call operations

// * * * * * * * * * * * * * * * * * * * * * * * * * * * * * * * * * * * * * //
Create time

Reading surfaceFeatureExtractDict

Surface            : "box.stl"


Feature line extraction is only valid on closed manifold surfaces.
Statistics:
Triangles    : 1238
Vertices     : 609
Bounding Box : (-0.73517 -0.62 0) (0.30994 0.44 2.02535)


Constructing feature set from included angle 150
Selecting edges purely based on geometric tests: no

Initial feature set:
    feature points : 100
    feature edges  : 656
    of which
        region edges   : 0
        external edges : 386
        internal edges : 270


Final feature set:
    points : 606
    of which
        convex             : 40
        concave            : 0
        mixed              : 60
        non-feature        : 506
    edges  : 656
    of which
        external edges     : 386
        internal edges     : 270
        flat edges         : 0
        open edges         : 0
        multiply connected : 0

Writing extendedFeatureEdgeMesh to "/home/john/Desktop/cse/4semester/openfinal/opentutorial/bigger_pipe/constant/extendedFeatureEdgeMesh/box.extendedFeatureEdgeMesh"

Writing extendedEdgeMesh components to "/home/john/Desktop/cse/4semester/openfinal/opentutorial/bigger_pipe/constant/extendedFeatureEdgeMesh/box"
Writing convex feature points to "/home/john/Desktop/cse/4semester/openfinal/opentutorial/bigger_pipe/constant/extendedFeatureEdgeMesh/box_convexFeaturePts.obj"
Writing concave feature points to "/home/john/Desktop/cse/4semester/openfinal/opentutorial/bigger_pipe/constant/extendedFeatureEdgeMesh/box_concaveFeaturePts.obj"
Writing mixed feature points to "/home/john/Desktop/cse/4semester/openfinal/opentutorial/bigger_pipe/constant/extendedFeatureEdgeMesh/box_mixedFeaturePts.obj"
Writing mixed feature point structure to "/home/john/Desktop/cse/4semester/openfinal/opentutorial/bigger_pipe/constant/extendedFeatureEdgeMesh/box_mixedFeaturePtsStructure.obj"
Writing external edges to "/home/john/Desktop/cse/4semester/openfinal/opentutorial/bigger_pipe/constant/extendedFeatureEdgeMesh/box_externalEdges.obj"
Writing internal edges to "/home/john/Desktop/cse/4semester/openfinal/opentutorial/bigger_pipe/constant/extendedFeatureEdgeMesh/box_internalEdges.obj"
Writing flat edges to "/home/john/Desktop/cse/4semester/openfinal/opentutorial/bigger_pipe/constant/extendedFeatureEdgeMesh/box_flatEdges.obj"
Writing open edges to "/home/john/Desktop/cse/4semester/openfinal/opentutorial/bigger_pipe/constant/extendedFeatureEdgeMesh/box_openEdges.obj"
Writing multiple edges to "/home/john/Desktop/cse/4semester/openfinal/opentutorial/bigger_pipe/constant/extendedFeatureEdgeMesh/box_multipleEdges.obj"
Writing region edges to "/home/john/Desktop/cse/4semester/openfinal/opentutorial/bigger_pipe/constant/extendedFeatureEdgeMesh/box_regionEdges.obj"
Writing edge directions to "/home/john/Desktop/cse/4semester/openfinal/opentutorial/bigger_pipe/constant/extendedFeatureEdgeMesh/box_edgeDirections.obj"

Writing featureEdgeMesh to "/home/john/Desktop/cse/4semester/openfinal/opentutorial/bigger_pipe/constant/triSurface/box.eMesh"

ExecutionTime = 0.05 s  ClockTime = 0 s

End

